tests/data/power_flow/automatic-tap-regulator/trafo-control-side-HV-max-voltage-tap/sym_output.json
{
  "version": "1.0",
  "type": "sym_output",
  "is_batch": false,
  "attributes": {},
  "data": {
    "node": [
      {"id": 2, "energized": 1, "u_pu": 0.999999490008046, "u": 9999.994900080461, "u_angle": -4.976345265642619e-08, "p": 30201.76880478965, "q": 10963.46426253733},
      {"id": 4, "energized": 1, "u_pu": 1.017806866433826, "u": 407.1227465735306, "u_angle": -2.618471703642352, "p": -30000.00000000019, "q": -10000.00000000026}
    ],
    "transformer": [
      {"id": 3, "energized": 1, "loading": 0.3213011651976846, "p_from": 30201.76880478965, "q_from": 10963.46426253733, "i_from": 1.855035723331389, "s_from": 32130.11651976846, "p_to": -30000.00000000019, "q_to": -10000.00000000026, "i_to": 44.84499757669082, "s_to": 31622.77660168405}
    ],
    "sym_load": [
      {"id": 5, "energized": 1, "p": 30000, "q": 10000, "i": 44.84499757669044, "s": 31622.77660168379, "pf": 0.9486832980505139}
    ],
    "source": [
      {"id": 1, "energized": 1, "p": 30201.76880478965, "q": 10963.46426253733, "i": 1.855035723331389, "s": 32130.11651976846, "pf": 0.939983170811336}
    ],
    "transformer_tap_regulator": [
      {"id": 6, "energized": 1, "tap_pos": -3}
    ]
  }
}